Circuit: * C:\Users\chris\Desktop\TFT\T42 SwitchCircuit.asc

WARNING: Less than two connections to node VA.  This node is used by R1.
WARNING: Less than two connections to node AV.  This node is used by R34.
WARNING: Less than two connections to node AH.  This node is used by R35.
WARNING: Less than two connections to node BV.  This node is used by R36.
WARNING: Less than two connections to node BH.  This node is used by R37.
WARNING: Less than two connections to node CV.  This node is used by R38.
WARNING: Less than two connections to node CH.  This node is used by R39.
.OP point found by inspection.

Date: Sat Oct 30 12:32:54 2021
Total elapsed time: 0.487 seconds.

tnom = 27
temp = 27
method = modified trap
totiter = 2082
traniter = 2082
tranpoints = 1042
accept = 1042
rejected = 0
matrix size = 42
fillins = 72
solver = Normal
Matrix Compiler1: 10.10 KB object code size  2.7/2.1/[0.9]
Matrix Compiler2: 5.33 KB object code size  0.5/1.1/[0.4]

